[TITLE]
 EPANET Example Network 1
A simple example of modeling chlorine decay. Both bulk and
wall reactions are included. 

[JUNCTIONS]
 10                                  710.0000
 11                                  710.0000
 12                                  700.0000
 13                                  695.0000
 21                                  700.0000
 22                                  695.0000
 23                                  690.0000
 31                                  700.0000
 32                                  710.0000

[RESERVOIRS]
 9                                   800.0000                                

[TANKS]
 2                                   850.0000     130.0000      10.0000     210.0000      60.0000      10.0000                                

[PIPES]
 10                              10                              11                                10530.0000      18.0000     100.0000       0.0000       
 11                              11                              12                                 5280.0000      14.0000     100.0000       0.0000       
 12                              12                              13                                 5280.0000      10.0000     100.0000       0.0000       
 21                              21                              22                                 5280.0000      10.0000     100.0000       0.0000       
 22                              22                              23                                 5280.0000      12.0000     100.0000       0.0000       
 31                              31                              32                                 5280.0000       6.0000     100.0000       0.0000       
 110                             2                               12                                  200.0000      18.0000     100.0000       0.0000       
 111                             11                              21                                 5280.0000      10.0000     100.0000       0.0000       
 112                             12                              22                                 5280.0000      12.0000     100.0000       0.0000       
 113                             13                              23                                 5280.0000       8.0000     100.0000       0.0000       
 121                             21                              31                                 5280.0000       8.0000     100.0000       0.0000       
 122                             22                              32                                 5280.0000       6.0000     100.0000       0.0000       

[PUMPS]
 9                               9                               10                               HEAD 1

[VALVES]

[DEMANDS]
 10                                    0.000000  1                              
 11                                  150.000000  1                              
 12                                  150.000000  1                              
 13                                  100.000000  1                              
 21                                  150.000000  1                              
 22                                  200.000000  1                              
 23                                  150.000000  1                              
 31                                  100.000000  1                              
 32                                  100.000000  1                              

[EMITTERS]
 12                                    0.500000

[STATUS]

[PATTERNS]
;Demand Pattern
 1                                     3.0000       3.0000       3.0000       3.0000       3.0000       3.0000
 1                                     3.0000       3.0000       3.0000       1.2000

[CURVES]
;PUMP: Pump Curve for Pump 9
 1                                  1500.0000     250.0000

[CONTROLS]
 LINK 9 1.0000 IF NODE 2 BELOW 110.0000
 LINK 9 0.0000 IF NODE 2 ABOVE 140.0000

[RULES]

[QUALITY]
 10                                    0.500000
 11                                    0.500000
 12                                    0.600000
 13                                    0.500000
 21                                    0.500000
 22                                    0.500000
 23                                    0.500000
 31                                    0.500000
 32                                    0.500000
 9                                     1.000000
 2                                     1.000000

[SOURCES]
 10                              CONCEN         0.000000 
 11                              FLOWPACED       0.000000 
 12                              CONCEN         0.500000 
 13                              CONCEN         0.000000 
 21                              CONCEN         0.000000 
 22                              CONCEN         0.000000 
 23                              CONCEN         0.000000 1
 31                              CONCEN         0.000000 
 32                              CONCEN         0.000000 
 9                               CONCEN         0.000000 
 2                               CONCEN         0.000000 

[MIXING]
 2                               LIFO           0.5000

[REACTIONS]
 ORDER  BULK            1.00
 ORDER  WALL            1
 ORDER  TANK            1.00
 GLOBAL BULK            -0.500000
 GLOBAL WALL            -1.000000
 TANK   2                               1.000000

[ENERGY]
 GLOBAL EFFIC        75.0000
 DEMAND CHARGE       0.0000

[TIMES]
 DURATION            24:01:40
 HYDRAULIC TIMESTEP  0:58:20
 QUALITY TIMESTEP    0:04:10
 REPORT TIMESTEP     0:58:20
 REPORT START        0:03:20
 PATTERN TIMESTEP    1:56:40
 PATTERN START       0:01:40
 RULE TIMESTEP       0:01:40
 START CLOCKTIME     0:00:00
 STATISTIC           NONE

[OPTIONS]
 UNITS               GPM
 PRESSURE            PSI
 HEADLOSS            H-W
 UNBALANCED          CONTINUE 10
 QUALITY             TRACE 11                             
 DEMAND MULTIPLIER   1.1000
 EMITTER EXPONENT    0.5500
 VISCOSITY           1.000000
 DIFFUSIVITY         1.000000
 SPECIFIC GRAVITY    1.000000
 TRIALS              45
 ACCURACY            0.01500000
 TOLERANCE           0.02000000
 CHECKFREQ           2
 MAXCHECK            10
 DAMPLIMIT           0.00000000

[REPORT]
 PAGESIZE            0
 STATUS              YES
 SUMMARY             NO
 ENERGY              NO
 MESSAGES            YES
 NODES               NONE
 LINKS               NONE
 Elevation           NO
 Demand              PRECISION 2
 Head                PRECISION 2
 Pressure            PRECISION 2
 Quality             PRECISION 2
 Length              NO
 Diameter            NO
 Flow                PRECISION 2
 Velocity            PRECISION 2
 Headloss            PRECISION 2
 Quality             NO
 State               NO
 Setting             NO
 Reaction            NO

[COORDINATES]
 10                                   20.000000      70.000000
 11                                   30.000000      70.000000
 12                                   50.000000      70.000000
 13                                   70.000000      70.000000
 21                                   30.000000      40.000000
 22                                   50.000000      40.000000
 23                                   70.000000      40.000000
 31                                   30.000000      10.000000
 32                                   50.000000      10.000000
 9                                    10.000000      70.000000
 2                                    50.000000      90.000000

[VERTICES]

[END]
